          11
  Built with Packmol                                             
  C           98.530758       98.517323      -10.142954
  C           98.818954       98.541897      -11.100206
  C           98.373120       97.974191      -11.792263
  C           98.032975       98.569686      -12.520063
  C           97.135658       98.280476      -12.853490
  C           96.440148       98.272077      -12.135019
  C           96.395682       99.146116      -11.651195
  C           96.456041       98.969353      -10.668787
  C           96.812642       99.776582      -10.198456
  C           97.034102       99.745074       -9.223797
  C           98.964657       99.115160       -9.468910
