11

C         -9.61388       -1.33249        3.84240
C        -10.48005       -1.14526        4.32735
C        -11.34260       -0.95881        4.81356
C        -12.20413       -0.77226        5.30716
C        -13.05789       -0.58627        5.80889
C        -13.90687       -0.39898        6.32345
C        -14.74799       -0.20977        6.85020
C        -15.57916       -0.01836        7.38650
C        -16.40643        0.17647        7.93281
C        -17.22730        0.37297        8.48293
C        -18.04868        0.57102        9.03668
